* PSpice Model Editor - Version 17.4.0
*$
.model TC407P PMOS (LEVEL=3 LD=1.2U VTO=-0.6 KP=0.69E-5 GAMMA=0.9 
+      TOX=1.0E-7 TPG=0 NSUB=2E15 L=8U
+      W=480U WD=1.4U RD=2.0 RS=2.0 RG=2.0
+      CGSO=4.14E-10 CGDO=4.14E-10 CGBO=1.61E-10 TT=80n) 
*      CMOS IC (TC407 UBP) CMOS LOCCOS 8U PROCESS
*$
.model TC407N NMOS (LEVEL=3 LD=1.2U VTO=0.7 KP=1.73E-5 GAMMA=1.0 
+      TOX=1.0E-7 TPG=0 NSUB=5E15 L=8U
+      W=290U WD=1.4U RD=2.0 RS=2.0 RG=2.0
+      CGSO=4.14E-10 CGDO=4.14E-10 CGBO=1.61E-10 TT=100n) 
*      CMOS IC (TC407 UBP) CMOS LOCCOS 8U PROCESS

*$
