* source CMOS_INV_GEN
.SUBCKT CMOS_INV IN OUT Vcc  
X_M4         OUT IN VCC BS250/PLP
X_M3         OUT IN 0 2N7000/PLP
.ENDS
